27
sym_fod1='X' sym_fod2='He'
O 0.0 1.10381 -0.228542
O 0.0 0.0 0.457084
O 0.0 -1.10381 -0.228542
X 2.3378256042336803e-05 -3.070897423785724e-05 0.45606332919243586
X -7.044408490921518e-05 1.1038130999217988 -0.22848006137784813
X 4.9901934811206215e-05 -1.1020983539972933 -0.22807146360653383
X 0.19340073926263535 0.5635046148401536 0.05983381653915098
X -0.19316674695411679 0.5637655205617423 0.060715437154643725
X 0.0006578089738301891 0.00019109681409488 0.7667620223301352
X 0.19433527472570325 -0.5640451749268491 0.058707819373959226
X -0.0003687234055894631 -1.0209682266035736 -0.5430685197921198
X -0.0012080414565151622 -1.3118927835386958 0.008802802909568329
X -0.0007010967299346052 1.3152612291131105 0.008296251462102994
X 6.441811589535026e-05 1.0161513211043725 -0.5414510766930595
X -0.1944043170716763 -0.5633849619644863 0.060486268798984826
He -8.724447478261785e-05 0.00017075157686933764 0.4565076083948377
He -9.557756193222948e-05 1.103941927629697 -0.22854766632455742
He -6.798524894687415e-05 -1.1038284287975988 -0.22856205441194505
He -0.193371224182113 0.5612682959076101 0.060259269869296556
He 0.19359631825939963 -0.5644678507921012 0.06026592243381832
He 0.0018296663722463438 0.0009109191256778915 0.7665223309506778
He -0.1920962689437536 -0.5617824203873916 0.059259671389648515
He 0.000250733940137691 -1.3133817794907883 0.007919705776751551
He 0.00010891250178210272 -1.0187972562334946 -0.5427451296243794
He 0.19405619510074695 0.5650290350032905 0.06076860889458883
He 0.0003240873552077041 1.0189141900191647 -0.5427050219873936
He -0.0006457685532249852 1.3178970453653487 0.007847279464330737
